&time_control
 run_days                  = 0,
 run_hours                 = 7,
 run_minutes               = 0,
 run_seconds               = 0,
 start_year                = 2023,   2023,   2023,   2023, 
 start_month               = 06,     06,     04,     04,   
 start_day                 = 06,     06,     02,     02,   
 start_hour                = 03,     03,     18,     18,   
 start_minute              = 00,     00,     00,     00,   
 start_second              = 00,     00,     00,     00,   
 end_year                  = 2023,   2023,   2023,   2023, 
 end_month                 = 06,     06,     04,     04,   
 end_day                   = 06,     06,     03,     03,  
 end_hour                  = 10,     10,     12,     12,  
 end_minute                = 00,     00,     00,     00,  
 end_second                = 00,     00,     00,     00,  
 interval_seconds          = 3600,
 input_from_file           = .true., .true., .true., .true., .true., .true.,
 restart                   = .false.,
 restart_interval_s        = 3600,
 io_form_history           = 2
 io_form_restart           = 102
 io_form_input             = 2
 io_form_boundary          = 2
 io_form_auxhist3          = 2
 debug_level               = 0
 history_interval_s        = 3600, 1800, 1800, 1800, 150, 150, 
 frames_per_outfile        = 1,    2,    2,   2,  24,  24,
 auxhist3_outname                   = "slice_d<domain>_<date>",
 auxhist3_interval_s                =  150,  150,  30,    15,
 frames_per_auxhist3                =   24,   24, 120, 240,
 iofields_filename         = "WAFields.txt","WAFields.txt","WAFields.txt","WAFields.txt",
 ignore_iofields_warning   = .true.,
 auxhist4_outname          = "wind_d<domain>_<date>",
 auxhist4_interval_s       = 600, 600, 150,  15,
 frames_per_auxhist4       =   6,   6,  24, 240,
 io_form_auxhist4          = 2,
! auxhist5_outname          = "power_d<domain>_<date>",
! auxhist5_interval_s       = 1800, 1800,1800,   1,
! frames_per_auxhist5       =    2,    2,   2,3600,
! io_form_auxhist5          = 2,
 override_restart_timers   = .true.,
 write_hist_at_0h_rst      = .true.,
! debug = 999999
/

&domains
 time_step                 =    0,
 time_step_fract_num       =    3,
 time_step_fract_den       =    2,
 max_dom                   =    1,
 max_ts_locs               =   11,
 ts_buf_size               =  600,
 max_ts_level              =  100,
 s_we                      =    1,   1,   1,  1,   1,    1, 
 e_we                      =  239, 571, 361, 541, 601,
 s_sn                      =    1,   1,   1,   1,   1,   1, 
 e_sn                      =  501, 976, 501, 701, 601,
 s_vert                    =    1,   1,   1,   1,   1,
! e_vert                    =  79, 158,  210, 161,
 e_vert                    =  161, 161, 161, 
 vert_refine_method        =    0,   0,   2,   2,   2,
 rebalance                 =    1,
 eta_levels(1:161)       = 1	0.999011240791692	0.998000760444894	0.996968544753587	0.995914504162911	0.994838476860471	0.993740232948987	0.992619479406437	0.991475865501270	0.990308988327080	0.989118398149878	0.987903603314343	0.986664074523293	0.985399248376805	0.984108530124903	0.982791295643913	0.981446892687736	0.980074641490621	0.978673834808832	0.977243737487816	0.975783585632468	0.974292585444288	0.972769911773347	0.971214706417201	0.969626076184310	0.968003090726784	0.966344780136388	0.964650132288362	0.962918089909284	0.961147547337356	0.959337346935481	0.957486275108824	0.955593057868386	0.953656355869980	0.951674758842637	0.949646779300820	0.947570845408569	0.945445292827810	0.943268355331998	0.941038153891447	0.938752683823904	0.936409799430730	0.934007195271267	0.931542382815799	0.929012660593000	0.926415075026020	0.923746367839255	0.921002904135654	0.918180572965472	0.915274649518797	0.912279605255699	0.909188849896380	0.905994388127481	0.902686375383055	0.899252562615198	0.895677631056077	0.891942435640601	0.888023200085423	0.883890736130947	0.879509790674575	0.874838651875911	0.869829161550324	0.864427278476287	0.858574308994514	0.852208864154911	0.845269518702570	0.837698045058838	0.829442990326036	0.820463275890435	0.810731447698195	0.800236206601129	0.788983908917386	0.776998841811411	0.764322228291432	0.751010075889142	0.737130122345859	0.722758226483805	0.707974588884434	0.692860164028113	0.677493554131484	0.661948573966726	0.646292566930729	0.630585454510174	0.614879427067014	0.599219139310255	0.583642258090950	0.568180217738716	0.552859061211074	0.537700275835644	0.522721563710982	0.507937514310495	0.493360168109279	0.478999474556785	0.464863656129232	0.450959493848673	0.437292550053318	0.423867342697117	0.410687483086514	0.397755786425871	0.385074362237117	0.372644689817537	0.360467682433291	0.348543742869395	0.336872812193537	0.325454413062533	0.314287688538769	0.303371437137029	0.292704144652011	0.282284013197463	0.272108987802191	0.262176780844966	0.252484894562558	0.243030641828064	0.233811165367425	0.224823455558489	0.216064366937788	0.207530633524423	0.199218883057281	0.191125650230765	0.183247389004902	0.175580484057730	0.168121261441055	0.160865998494808	0.153810933070105	0.146952272106723	0.140286199606771	0.133808884042959	0.127516485236820	0.121405160739632	0.115471071746460	0.109710388571792	0.104119295713680	0.0986939965322859	0.0934307175683779	0.0883257125280483	0.0833752659620957	0.0785756966727093	0.0739233608869508	0.0694146552465584	0.0650460196770418	0.0608139402154187	0.0567149518936850	0.0527456417910870	0.0489026523775225	0.0451826852662592	0.0415825054689153	0.0380989461919760	0.0347289141272065	0.0314693950684922	0.0283174595427332	0.0252702679892828	0.0223250748865420	0.0194792311369201	0.0167301840140032	0.0140754740730159	0.0115127286374685	0.00903965179068273	0.00665401118746182	0.00435362240572522	0.00213633191647327	0
 p_top_requested           = 5000,
 num_metgrid_levels        = 41,
 num_metgrid_soil_levels   = 9,
 dx                        = 300, 200, 20, 10, 
 dy                        = 300, 200, 20, 10,
 grid_id                   =     1,    2,    3,   4,  5,  6,
 parent_id                 =     1,    1,    2,   3,  4,  5,
 i_parent_start            =     1,   240,  270, 120, 
 j_parent_start            =     1,   240,  270, 303,
 parent_grid_ratio         =     1,    5,   10,  5,   
 parent_time_step_ratio    =     1,    5,   10,  5,
 feedback                  =     0,
 smooth_option             =     0,
 /

&physics
 mp_physics                =   16,  16,  3,  3,
 ra_lw_physics             =   1,  1,  1,  1,
 ra_sw_physics             =   1,  1,  1,  1,
 radt                      =   10,  10,  1,  1,
 sf_surface_physics        =   2,  2,  2,  2,
 sf_sfclay_physics         =   2,  2,  2,  2,
 bl_pbl_physics            =   0,  0,  0,  0,
 bldt                      =   0,  0,  0,  0,  0,
 cu_physics                =   0,  0,  0,  0,
 cudt                      =   0,  0,  0,  0,  4,
 isfflx                    =  1,
 ifsnow                    =  0,
 icloud                    =  1,
 surface_input_source      =  1,
 num_soil_layers           =  4,
 num_land_cat              =  40,
! sf_urban_physics          =  0,  0,  0,  0,  0,  0,
! wp_opt                    =  0,  0,  0,  3,
! turbine_opt               =  28,
! n_turbines                =  50,
! n_timeseries              =  100,
! n_tmeturb                 =  5000,
! windturb_spec             = "windspec.in",
! turb_loc_in_latlon        = .true.,
 /

&fdda
/

&dynamics
! use_theta_m                         = 0,
! les_pert_opt                        = 0,      1,      1,     1,     1,
! m_pblh_opt                          = 1,      1,      1,     1,     1,
 use_input_w                         = .true.,
 w_damping                 =    1,
 diff_opt                  =    2,     2,    2,      2,
 km_opt                    =    2,     2,    3,      2,
 sfs_opt                   =    0,     0,    0,
 m_opt                     =    1,     1,    1,
 dwl_opt                   =    -1,     -1,    1,   !ASW DWL SGS (need km_opt 3)
 rsfs_opt                  =    -1,     -1,    -1, !ASW reconstruction
 rsfsvsbc_opt              =    0,     0,    0,   !ASW reconstruction bottom boundary
 can_opt                   =    0,     0,    1,   !ASW canopy necessary for DWL
 canfact                   = 0.00,  0.00, 0.50,   !ASW strength based on aspect ratio in Tina's dissertation
 mix_isotropic             =    0,     0,    1,      1,
 diff_6th_opt              =    0,        0,      0,      0,      0,      0,
 diff_6th_factor           = 0.12,     0.12,   0.12,   0.12,   0.12,   0.12,
 base_temp                 = 290.
 damp_opt                  = 1,
 zdamp                     =  5000.,  5000.,  5000.,  5000.,  5000.,  5000.,
 dampcoef                  =    0.01,    0.01,    0.2,    0.2,     0.2,   0.2,
 khdif                     =      0,      0,      0,      0,       0,     0,
 kvdif                     =      0,      0,      0,      0,       0,     0,
 non_hydrostatic           = .true., .true., .true., .true., .true., .true.,
 moist_adv_opt             =      1,      1,      1,      1,      1,      1,
 scalar_adv_opt            =      1,      1,      1,      1,      1,      1,
 tke_adv_opt               =      1,      1,      1,      1,      1,      1, 
 epssm                     =    0.2,    0.2,
 h_mom_adv_order           =      5,      5,      5,      5,      5,      5,
 v_mom_adv_order           =      3,      3,      3,      3,      3,      3, 
 h_sca_adv_order           =      5,      5,      5,      5,      5,      5, 
 v_sca_adv_order           =      3,      3,      3,      3,      3,      3, 
 slice_opt                 =      1,      1,      1,      1,
 num_slices                =      2,
 slice_heights             =      88.5, 1000,
 /
 
&bdy_control
 spec_bdy_width            = 5,
 spec_zone                 = 1,
 relax_zone                = 4,
 specified                 =  .true., .false., .false., .false., .false., .false.,
 nested                    = .false.,  .true.,  .true.,  .true.,  .true.,  .true.,
/

 &namelist_quilt
 nio_tasks_per_group       = 0,
 nio_groups                = 1,
 /
